Circuit: * C:\Users\alumn\Desktop\AudioAmpli\Design\OPAMP supply\LowVoltageSupplyZenerApproach.asc

Per .tran options, skipping operating point for transient analysis.

Date: Sat Jul 30 14:03:16 2022
Total elapsed time: 0.059 seconds.

tnom = 27
temp = 27
method = modified trap
totiter = 2086
traniter = 2086
tranpoints = 1044
accept = 1044
rejected = 0
matrix size = 4
fillins = 0
solver = Normal
Matrix Compiler1: 100 bytes object code size  0.1/0.0/[0.0]
Matrix Compiler2: 248 bytes object code size  0.1/0.1/[0.0]

