Circuit: * C:\Users\alumn\Desktop\AudioAmpli\Design\OPAMP supply\LowVoltageSupplyZenerApproach.asc

Error on line 15 : .simulator default
	 Unknown control card
WARNING: Less than two connections to node N003.  This node is used by R§OPAMPS.
Per .tran options, skipping operating point for transient analysis.

Date: Sun Jul 31 00:17:45 2022
Total elapsed time: 0.072 seconds.

tnom = 27
temp = 27
method = modified trap
totiter = 2100
traniter = 2100
tranpoints = 1047
accept = 1047
rejected = 0
matrix size = 8
fillins = 1
solver = Normal
Matrix Compiler1: 264 bytes object code size  0.1/0.1/[0.1]
Matrix Compiler2: 506 bytes object code size  0.1/0.1/[0.1]

